<?xml version="1.0" encoding="UTF-8"?>
<routes xmlns:xsi="http://www.w3.org/2001/XMLSchema-instance" xsi:noNamespaceSchemaLocation="http://sumo.dlr.de/xsd/routes_file.xsd">
    <vType id="car" accel="2.6" decel="4.5" sigma="0.5" length="5" maxSpeed="50"/>
    
    <route id="route0" edges="edge0"/>
    
    <vehicle id="car1" type="car" route="route0" depart="0" departPos="0"/>
    <vehicle id="car2" type="car" route="route0" depart="2" departPos="50"/>
    <vehicle id="car3" type="car" route="route0" depart="4" departPos="100"/>
</routes>